C10H6Cl8
APtclcactv03182017073D 0   0.00000     0.00000
 
 24 26  0  0  0  0  0  0  0  0999 V2000
   -0.0962   -2.5619   -1.0900 Cl  0  0  0  0  0  0  0  0  0  0  0  0
    0.2558   -1.0118   -0.2389 C   0  0  0  0  0  0  0  0  0  0  0  0
    1.4653   -1.0139    0.7038 C   0  0  0  0  0  0  0  0  0  0  0  0
    1.8489    0.2360    0.8920 C   0  0  0  0  0  0  0  0  0  0  0  0
    0.9200    1.1530    0.0869 C   0  0  0  0  0  0  0  0  0  0  0  0
    0.6227    0.2206   -1.1437 C   0  0  0  0  0  0  0  0  0  0  0  0
    2.0859   -0.0761   -2.1545 Cl  0  0  0  0  0  0  0  0  0  0  0  0
   -0.7756    0.7974   -2.1250 Cl  0  0  0  0  0  0  0  0  0  0  0  0
   -0.4444    1.0703    0.8416 C   0  0  0  0  0  0  0  0  0  0  0  0
   -1.4584    1.9525    0.0876 C   0  0  0  0  0  0  0  0  0  0  0  0
   -2.7338    1.0797   -0.0046 C   0  0  0  0  0  0  0  0  0  0  0  0
   -2.1608   -0.3360   -0.2583 C   0  0  0  0  0  0  0  0  0  0  0  0
   -0.9015   -0.4211    0.6269 C   0  0  0  0  0  0  0  0  0  0  0  0
   -3.3458   -1.5959    0.2510 Cl  0  0  0  0  0  0  0  0  0  0  0  0
   -3.6548    1.1281    1.5447 Cl  0  0  0  0  0  0  0  0  0  0  0  0
    1.5491    2.8017   -0.2826 Cl  0  0  0  0  0  0  0  0  0  0  0  0
    3.1781    0.7527    1.8818 Cl  0  0  0  0  0  0  0  0  0  0  0  0
    2.2042   -2.4196    1.4050 Cl  0  0  0  0  0  0  0  0  0  0  0  0
   -0.3582    1.3390    1.8945 H   0  0  0  0  0  0  0  0  0  0  0  0
   -1.6609    2.8647    0.6489 H   0  0  0  0  0  0  0  0  0  0  0  0
   -1.0878    2.1919   -0.9091 H   0  0  0  0  0  0  0  0  0  0  0  0
   -3.3604    1.3980   -0.8378 H   0  0  0  0  0  0  0  0  0  0  0  0
   -1.9012   -0.4590   -1.3098 H   0  0  0  0  0  0  0  0  0  0  0  0
   -1.0794   -0.9628    1.5558 H   0  0  0  0  0  0  0  0  0  0  0  0
  1  2  1  0  0  0  0
  2  3  1  0  0  0  0
  3  4  2  0  0  0  0
  4  5  1  0  0  0  0
  5  6  1  0  0  0  0
  2  6  1  0  0  0  0
  6  7  1  0  0  0  0
  6  8  1  0  0  0  0
  5  9  1  0  0  0  0
  9 10  1  0  0  0  0
 10 11  1  0  0  0  0
 11 12  1  0  0  0  0
 12 13  1  0  0  0  0
  9 13  1  0  0  0  0
  2 13  1  0  0  0  0
 12 14  1  0  0  0  0
 11 15  1  0  0  0  0
  5 16  1  0  0  0  0
  4 17  1  0  0  0  0
  3 18  1  0  0  0  0
  9 19  1  0  0  0  0
 10 20  1  0  0  0  0
 10 21  1  0  0  0  0
 11 22  1  0  0  0  0
 12 23  1  0  0  0  0
 13 24  1  0  0  0  0
M  END
$$$$
